test/data/rtsgmlcgic/rts_gmlc_gic_east.m
%% MATPOWER Case Format : Version 2
function mpc = rts_gmlc_gic_east
mpc.version = '2';


%%-----  Power Flow Data  -----%%

%% system MVA base
mpc.baseMVA = 100.0;


%% bus data
%    bus_i    type    Pd    Qd    Gs    Bs    area    Vm    Va    baseKV    zone    Vmax    Vmin
mpc.bus = [
	101	1	108.000004	22	0	0	1	1	0	138	1	1.15	0.85
	102	1	97.000003	20	0	0	1	1	0	138	1	1.15	0.85
	103	1	179.999995	37	0	0	1	1	0	138	1	1.15	0.85
	104	1	74.000001	15.000001	0	0	1	1	0	138	1	1.15	0.85
	105	1	70.999998	14	0	0	1	1	0	138	1	1.15	0.85
	106	1	136.000001	28	0	0	1	1	0	138	1	1.15	0.85
	107	1	125	25	0	0	1	1	0	138	1	1.15	0.85
	108	1	171.000004	34.999999	0	0	1	1	0	138	1	1.15	0.85
	109	1	175	36.000001	0	0	1	1	0	138	1	1.15	0.85
	110	1	195.000005	40.000001	0	0	1	1	0	138	1	1.15	0.85
	111	1	0	0	0	0	1	1	0	230	1	1.15	0.85
	112	1	0	0	0	0	1	1	0	230	1	1.15	0.85
	113	1	265.00001	54.000002	0	0	1	1	0	230	1	1.15	0.85
	114	1	194.000006	38.999999	0	0	1	1	0	230	1	1.15	0.85
	115	1	317.000008	63.999999	0	0	1	1	0	230	1	1.15	0.85
	116	1	100	20	0	0	1	1	0	230	1	1.15	0.85
	117	1	0	0	0	0	1	1	0	230	1	1.15	0.85
	118	1	332.999992	68.000001	0	0	1	1	0	230	1	1.15	0.85
	119	1	180.999994	37	0	0	1	1	0	230	1	1.15	0.85
	120	1	127.999997	25.999999	0	0	1	1	0	230	1	1.15	0.85
	121	1	0	0	0	0	1	1	0	230	1	1.15	0.85
	122	1	0	0	0	0	1	1	0	230	1	1.15	0.85
	123	1	0	0	0	0	1	1	0	230	1	1.15	0.85
	124	1	0	0	0	0	1	1	0	230	1	1.15	0.85
	201	1	108.000004	22	0	0	1	1	0	138	1	1.15	0.85
	202	1	97.000003	20	0	0	1	1	0	138	1	1.15	0.85
	203	1	179.999995	37	0	0	1	1	0	138	1	1.15	0.85
	204	1	74.000001	15.000001	0	0	1	1	0	138	1	1.15	0.85
	205	1	70.999998	14	0	0	1	1	0	138	1	1.15	0.85
	206	1	136.000001	28	0	0	1	1	0	138	1	1.15	0.85
	207	1	125	25	0	0	1	1	0	138	1	1.15	0.85
	208	1	171.000004	34.999999	0	0	1	1	0	138	1	1.15	0.85
	209	1	175	36.000001	0	0	1	1	0	138	1	1.15	0.85
	210	1	195.000005	40.000001	0	0	1	1	0	138	1	1.15	0.85
	211	1	0	0	0	0	1	1	0	230	1	1.15	0.85
	212	1	0	0	0	0	1	1	0	230	1	1.15	0.85
	213	1	265.00001	54.000002	0	0	1	1	0	230	1	1.15	0.85
	214	1	194.000006	38.999999	0	0	1	1	0	230	1	1.15	0.85
	215	1	317.000008	63.999999	0	0	1	1	0	230	1	1.15	0.85
	216	1	100	20	0	0	1	1	0	230	1	1.15	0.85
	217	1	0	0	0	0	1	1	0	230	1	1.15	0.85
	218	1	332.999992	68.000001	0	0	1	1	0	230	1	1.15	0.85
	219	1	180.999994	37	0	0	1	1	0	230	1	1.15	0.85
	220	1	127.999997	25.999999	0	0	1	1	0	230	1	1.15	0.85
	221	1	0	0	0	0	1	1	0	230	1	1.15	0.85
	222	1	0	0	0	0	1	1	0	230	1	1.15	0.85
	223	1	0	0	0	0	1	1	0	230	1	1.15	0.85
	224	1	0	0	0	0	1	1	0	230	1	1.15	0.85
	301	1	108.000004	22	0	0	1	1	0	138	1	1.15	0.85
	302	1	97.000003	20	0	0	1	1	0	138	1	1.15	0.85
	303	1	179.999995	37	0	0	1	1	0	138	1	1.15	0.85
	304	1	74.000001	15.000001	0	0	1	1	0	138	1	1.15	0.85
	305	1	70.999998	14	0	0	1	1	0	138	1	1.15	0.85
	306	1	136.000001	28	0	0	1	1	0	138	1	1.15	0.85
	307	1	125	25	0	0	1	1	0	138	1	1.15	0.85
	308	1	171.000004	34.999999	0	0	1	1	0	138	1	1.15	0.85
	309	1	175	36.000001	0	0	1	1	0	138	1	1.15	0.85
	310	1	195.000005	40.000001	0	0	1	1	0	138	1	1.15	0.85
	311	1	0	0	0	0	1	1	0	230	1	1.15	0.85
	312	1	0	0	0	0	1	1	0	230	1	1.15	0.85
	313	1	265.00001	54.000002	0	0	1	1	0	230	1	1.15	0.85
	314	1	194.000006	38.999999	0	0	1	1	0	230	1	1.15	0.85
	315	1	317.000008	63.999999	0	0	1	1	0	230	1	1.15	0.85
	316	1	100	20	0	0	1	1	0	230	1	1.15	0.85
	317	1	0	0	0	0	1	1	0	230	1	1.15	0.85
	318	1	332.999992	68.000001	0	0	1	1	0	230	1	1.15	0.85
	319	1	180.999994	37	0	0	1	1	0	230	1	1.15	0.85
	320	1	127.999997	25.999999	0	0	1	1	0	230	1	1.15	0.85
	321	1	0	0	0	0	1	1	0	230	1	1.15	0.85
	322	1	0	0	0	0	1	1	0	230	1	1.15	0.85
	323	1	0	0	0	0	1	1	0	230	1	1.15	0.85
	324	1	0	0	0	0	1	1	0	230	1	1.15	0.85
	325	1	0	0	0	0	1	1	0	230	1	1.15	0.85
	1001	2	0	0	0	0	1	1	0	22	1	1.15	0.85
	1002	2	0	0	0	0	1	1	0	22	1	1.15	0.85
	1003	2	0	0	0	0	1	1	0	22	1	1.15	0.85
	1004	2	0	0	0	0	1	1	0	22	1	1.15	0.85
	1005	2	0	0	0	0	1	1	0	22	1	1.15	0.85
	1006	2	0	0	0	0	1	1	0	22	1	1.15	0.85
	1007	2	0	0	0	0	1	1	0	22	1	1.15	0.85
	1008	2	0	0	0	0	1	1	0	22	1	1.15	0.85
	1009	2	0	0	0	0	1	1	0	22	1	1.15	0.85
	1010	2	0	0	0	0	1	1	0	22	1	1.15	0.85
	1011	2	0	0	0	0	1	1	0	22	1	1.15	0.85
	1012	2	0	0	0	0	1	1	0	22	1	1.15	0.85
	1013	2	0	0	0	0	1	1	0	22	1	1.15	0.85
	1014	2	0	0	0	0	1	1	0	22	1	1.15	0.85
	1015	2	0	0	0	0	1	1	0	22	1	1.15	0.85
	1016	2	0	0	0	0	1	1	0	22	1	1.15	0.85
	1017	2	0	0	0	0	1	1	0	22	1	1.15	0.85
	1018	2	0	0	0	0	1	1	0	22	1	1.15	0.85
	1019	2	0	0	0	0	1	1	0	22	1	1.15	0.85
	1020	2	0	0	0	0	1	1	0	22	1	1.15	0.85
	1021	2	0	0	0	0	1	1	0	22	1	1.15	0.85
	1022	2	0	0	0	0	1	1	0	22	1	1.15	0.85
	1023	2	0	0	0	0	1	1	0	22	1	1.15	0.85
	1024	2	0	0	0	0	1	1	0	22	1	1.15	0.85
	1025	2	0	0	0	0	1	1	0	22	1	1.15	0.85
	1026	2	0	0	0	0	1	1	0	22	1	1.15	0.85
	1027	2	0	0	0	0	1	1	0	22	1	1.15	0.85
	1028	2	0	0	0	0	1	1	0	22	1	1.15	0.85
	1029	2	0	0	0	0	1	1	0	22	1	1.15	0.85
	1030	2	0	0	0	0	1	1	0	22	1	1.15	0.85
	1031	2	0	0	0	0	1	1	0	22	1	1.15	0.85
	1032	2	0	0	0	0	1	1	0	22	1	1.15	0.85
	1033	2	0	0	0	0	1	1	0	22	1	1.15	0.85
	1034	2	0	0	0	0	1	1	0	22	1	1.15	0.85
	1035	2	0	0	0	0	1	1	0	22	1	1.15	0.85
	1036	2	0	0	0	0	1	1	0	22	1	1.15	0.85
	1037	2	0	0	0	0	1	1	0	22	1	1.15	0.85
	1038	2	0	0	0	0	1	1	0	22	1	1.15	0.85
	1039	2	0	0	0	0	1	1	0	22	1	1.15	0.85
	1040	2	0	0	0	0	1	1	0	22	1	1.15	0.85
	1041	2	0	0	0	0	1	1	0	22	1	1.15	0.85
	1042	2	0	0	0	0	1	1	0	22	1	1.15	0.85
	1043	2	0	0	0	0	1	1	0	22	1	1.15	0.85
	1044	2	0	0	0	0	1	1	0	22	1	1.15	0.85
	1045	2	0	0	0	0	1	1	0	22	1	1.15	0.85
	1046	2	0	0	0	0	1	1	0	22	1	1.15	0.85
	1047	2	0	0	0	0	1	1	0	22	1	1.15	0.85
	1048	2	0	0	0	0	1	1	0	22	1	1.15	0.85
	1049	2	0	0	0	0	1	1	0	22	1	1.15	0.85
	1050	2	0	0	0	0	1	1	0	22	1	1.15	0.85
	1051	2	0	0	0	0	1	1	0	22	1	1.15	0.85
	1052	2	0	0	0	0	1	1	0	22	1	1.15	0.85
	1053	2	0	0	0	0	1	1	0	22	1	1.15	0.85
	1054	2	0	0	0	0	1	1	0	22	1	1.15	0.85
	1055	2	0	0	0	0	1	1	0	22	1	1.15	0.85
	1056	2	0	0	0	0	1	1	0	22	1	1.15	0.85
	1057	2	0	0	0	0	1	1	0	22	1	1.15	0.85
	1058	2	0	0	0	0	1	1	0	22	1	1.15	0.85
	1059	2	0	0	0	0	1	1	0	22	1	1.15	0.85
	1060	2	0	0	0	0	1	1	0	22	1	1.15	0.85
	1061	2	0	0	0	0	1	1	0	22	1	1.15	0.85
	1062	2	0	0	0	0	1	1	0	22	1	1.15	0.85
	1063	2	0	0	0	0	1	1	0	22	1	1.15	0.85
	1064	2	0	0	0	0	1	1	0	22	1	1.15	0.85
	1065	2	0	0	0	0	1	1	0	22	1	1.15	0.85
	1066	2	0	0	0	0	1	1	0	22	1	1.15	0.85
	1067	2	0	0	0	0	1	1	0	22	1	1.15	0.85
	1068	2	0	0	0	0	1	1	0	22	1	1.15	0.85
	1069	2	0	0	0	0	1	1	0	22	1	1.15	0.85
	1070	2	0	0	0	0	1	1	0	22	1	1.15	0.85
	1071	2	0	0	0	0	1	1	0	22	1	1.15	0.85
	1072	2	0	0	0	0	1	1	0	22	1	1.15	0.85
	1073	2	0	0	0	0	1	1	0	22	1	1.15	0.85
	1074	2	0	0	0	0	1	1	0	22	1	1.15	0.85
	1075	2	0	0	0	0	1	1	0	22	1	1.15	0.85
	1076	2	0	0	0	0	1	1	0	22	1	1.15	0.85
	1077	2	0	0	0	0	1	1	0	22	1	1.15	0.85
	1078	2	0	0	0	0	1	1	0	22	1	1.15	0.85
	1079	2	0	0	0	0	1	1	0	22	1	1.15	0.85
	1080	2	0	0	0	0	1	1	0	22	1	1.15	0.85
	1081	2	0	0	0	0	1	1	0	22	1	1.15	0.85
	1082	2	0	0	0	0	1	1	0	22	1	1.15	0.85
	1083	2	0	0	0	0	1	1	0	22	1	1.15	0.85
	1084	2	0	0	0	0	1	1	0	22	1	1.15	0.85
	1085	2	0	0	0	0	1	1	0	22	1	1.15	0.85
	1086	2	0	0	0	0	1	1	0	22	1	1.15	0.85
	1087	2	0	0	0	0	1	1	0	22	1	1.15	0.85
	1088	2	0	0	0	0	1	1	0	22	1	1.15	0.85
	1089	2	0	0	0	0	1	1	0	22	1	1.15	0.85
	1090	2	0	0	0	0	1	1	0	22	1	1.15	0.85
	1091	2	0	0	0	0	1	1	0	22	1	1.15	0.85
	1092	2	0	0	0	0	1	1	0	22	1	1.15	0.85
	1093	2	0	0	0	0	1	1	0	22	1	1.15	0.85
	1094	2	0	0	0	0	1	1	0	22	1	1.15	0.85
	1095	2	0	0	0	0	1	1	0	22	1	1.15	0.85
	1096	2	0	0	0	0	1	1	0	22	1	1.15	0.85
];


%% generator data
%    bus    Pg    Qg    Qmax    Qmin    Vg    mBase    status    Pmax    Pmin    Pc1    Pc2    Qc1min    Qc1max    Qc2min    Qc2max    ramp_agc    ramp_10    ramp_30    ramp_q    apf
mpc.gen = [
	1087	354.999995	63.120002	150	-25	1	100	1	354.999995	170.000005	0	0	0	0	0	0	0	0	0	-1000	0
	1093	50	-5.13	16	-10	1	100	1	50	0	0	0	0	0	0	0	0	0	0	-1000	0
	1088	354.999995	-3.34	150	-25	1	100	1	354.999995	170.000005	0	0	0	0	0	0	0	0	0	-1000	0
	1090	55.000001	-9.73	19	-15.000001	1	100	1	55.000001	22	0	0	0	0	0	0	0	0	0	-1000	0
	1094	50	-5.13	16	-10	1	100	1	50	0	0	0	0	0	0	0	0	0	0	-1000	0
	1020	400	-21.870001	200	-50	1	100	1	400	396.000004	0	0	0	0	0	0	0	0	0	-1000	0
	1027	154.999995	-5.19	80.000001	-50	1	100	1	154.999995	62	0	0	0	0	0	0	0	0	0	-1000	0
	1042	354.999995	135.800004	150	-25	1	100	1	354.999995	170.000005	0	0	0	0	0	0	0	0	0	-1000	0
	1023	50	-6.79	16	-10	1	100	1	50	0	0	0	0	0	0	0	0	0	0	-1000	0
	1078	5	6	6	0	1	100	1	12	5	0	0	0	0	0	0	0	0	0	-1000	0
	1009	354.999995	49.509999	150	-25	1	100	1	354.999995	170.000005	0	0	0	0	0	0	0	0	0	-1000	0
	1024	50	-6.79	16	-10	1	100	1	50	0	0	0	0	0	0	0	0	0	0	-1000	0
	1026	50	-6.79	16	-10	1	100	1	50	0	0	0	0	0	0	0	0	0	0	-1000	0
	1028	350	28.41	150	-25	1	100	1	350	139.999998	0	0	0	0	0	0	0	0	0	-1000	0
	1022	50	-6.79	16	-10	1	100	1	50	0	0	0	0	0	0	0	0	0	0	-1000	0
	1021	50	-6.79	16	-10	1	100	1	50	0	0	0	0	0	0	0	0	0	0	-1000	0
	1001	8	4.96	10	0	1	100	1	20	8	0	0	0	0	0	0	0	0	0	-1000	0
	1049	50	16	16	-10	1	100	1	50	0	0	0	0	0	0	0	0	0	0	-1000	0
	1002	8	4.96	10	0	1	100	1	20	8	0	0	0	0	0	0	0	0	0	-1000	0
	1005	8	4.88	10	0	1	100	1	20	8	0	0	0	0	0	0	0	0	0	-1000	0
	1046	55.000001	19	19	-15.000001	1	100	1	55.000001	22	0	0	0	0	0	0	0	0	0	-1000	0
	1041	55.000001	19	19	-15.000001	1	100	1	55.000001	22	0	0	0	0	0	0	0	0	0	-1000	0
	1006	8	4.88	10	0	1	100	1	20	8	0	0	0	0	0	0	0	0	0	-1000	0
	1067	8	7.95	10	0	1	100	1	20	8	0	0	0	0	0	0	0	0	0	-1000	0
	1086	154.999995	80.000001	80.000001	-50	1	100	1	154.999995	62	0	0	0	0	0	0	0	0	0	-1000	0
	1068	44	16.53	19	-15.000001	1	100	1	55.000001	22	0	0	0	0	0	0	0	0	0	-1000	0
	1029	55.000001	0.62	19	-15.000001	1	100	1	55.000001	22	0	0	0	0	0	0	0	0	0	-1000	0
	1045	0	125.279999	200	-50	1	100	1	0	0	0	0	0	0	0	0	0	0	0	-1000	0
	1080	5	6	6	0	1	100	1	12	5	0	0	0	0	0	0	0	0	0	-1000	0
	1064	22	0.24	19	-15.000001	1	100	1	55.000001	22	0	0	0	0	0	0	0	0	0	-1000	0
	1063	22	0.24	19	-15.000001	1	100	1	55.000001	22	0	0	0	0	0	0	0	0	0	-1000	0
	1060	154.999995	-10.31	80.000001	-50	1	100	1	154.999995	62	0	0	0	0	0	0	0	0	0	-1000	0
	1033	8	5.29	10	0	1	100	1	20	8	0	0	0	0	0	0	0	0	0	-1000	0
	1025	50	-6.79	16	-10	1	100	1	50	0	0	0	0	0	0	0	0	0	0	-1000	0
	1003	75.999999	0.14	30.000001	-25	1	100	1	75.999999	30.000001	0	0	0	0	0	0	0	0	0	-1000	0
	1083	55.000001	19	19	-15.000001	1	100	1	55.000001	22	0	0	0	0	0	0	0	0	0	-1000	0
	1004	75.999999	0.14	30.000001	-25	1	100	1	75.999999	30.000001	0	0	0	0	0	0	0	0	0	-1000	0
	1040	55.000001	19	19	-15.000001	1	100	1	55.000001	22	0	0	0	0	0	0	0	0	0	-1000	0
	1007	75.999999	-2.31	30.000001	-25	1	100	1	75.999999	30.000001	0	0	0	0	0	0	0	0	0	-1000	0
	1043	55.000001	9.23	19	-15.000001	1	100	1	55.000001	22	0	0	0	0	0	0	0	0	0	-1000	0
	1066	8	7.95	10	0	1	100	1	20	8	0	0	0	0	0	0	0	0	0	-1000	0
	1044	55.000001	9.23	19	-15.000001	1	100	1	55.000001	22	0	0	0	0	0	0	0	0	0	-1000	0
	1084	55.000001	19	19	-15.000001	1	100	1	55.000001	22	0	0	0	0	0	0	0	0	0	-1000	0
	1047	55.000001	19	19	-15.000001	1	100	1	55.000001	22	0	0	0	0	0	0	0	0	0	-1000	0
	1062	350	20.59	150	-25	1	100	1	350	139.999998	0	0	0	0	0	0	0	0	0	-1000	0
	1061	154.999995	-10.31	80.000001	-50	1	100	1	154.999995	62	0	0	0	0	0	0	0	0	0	-1000	0
	1069	44	16.53	19	-15.000001	1	100	1	55.000001	22	0	0	0	0	0	0	0	0	0	-1000	0
	1048	50	16	16	-10	1	100	1	50	0	0	0	0	0	0	0	0	0	0	-1000	0
	1034	75.999999	6.99	30.000001	-25	1	100	1	75.999999	30.000001	0	0	0	0	0	0	0	0	0	-1000	0
	1030	55.000001	0.62	19	-15.000001	1	100	1	55.000001	22	0	0	0	0	0	0	0	0	0	-1000	0
	1015	5	6	6	0	1	100	1	12	5	0	0	0	0	0	0	0	0	0	-1000	0
	1012	55.000001	19	19	-15.000001	1	100	1	55.000001	22	0	0	0	0	0	0	0	0	0	-1000	0
	1016	5	6	6	0	1	100	1	12	5	0	0	0	0	0	0	0	0	0	-1000	0
	1037	8	5.13	10	0	1	100	1	20	8	0	0	0	0	0	0	0	0	0	-1000	0
	1035	50	4.15	16	-10	1	100	1	50	0	0	0	0	0	0	0	0	0	0	-1000	0
	1038	75.999999	2.01	30.000001	-25	1	100	1	75.999999	30.000001	0	0	0	0	0	0	0	0	0	-1000	0
	1085	55.000001	60.000002	60.000002	0	1	100	1	55.000001	22	0	0	0	0	0	0	0	0	0	-1000	0
	1031	55.000001	0.62	19	-15.000001	1	100	1	55.000001	22	0	0	0	0	0	0	0	0	0	-1000	0
	1032	8	5.29	10	0	1	100	1	20	8	0	0	0	0	0	0	0	0	0	-1000	0
	1011	55.000001	19	19	-15.000001	1	100	1	55.000001	22	0	0	0	0	0	0	0	0	0	-1000	0
	1013	55.000001	19	19	-15.000001	1	100	1	55.000001	22	0	0	0	0	0	0	0	0	0	-1000	0
	1059	50	-6.97	16	-10	1	100	1	50	0	0	0	0	0	0	0	0	0	0	-1000	0
	1051	154.999995	80.000001	80.000001	-50	1	100	1	154.999995	62	0	0	0	0	0	0	0	0	0	-1000	0
	1056	50	-6.97	16	-10	1	100	1	50	0	0	0	0	0	0	0	0	0	0	-1000	0
	1017	154.999995	80.000001	80.000001	-50	1	100	1	154.999995	62	0	0	0	0	0	0	0	0	0	-1000	0
	1019	354.999995	68.430001	150	-25	1	100	1	354.999995	170.000005	0	0	0	0	0	0	0	0	0	-1000	0
	1014	0	103.320003	200	-50	1	100	1	0	0	0	0	0	0	0	0	0	0	0	-1000	0
	1079	5	6	6	0	1	100	1	12	5	0	0	0	0	0	0	0	0	0	-1000	0
	1039	75.999999	2.01	30.000001	-25	1	100	1	75.999999	30.000001	0	0	0	0	0	0	0	0	0	-1000	0
	1055	50	-6.97	16	-10	1	100	1	50	0	0	0	0	0	0	0	0	0	0	-1000	0
	1074	55.000001	19	19	-15.000001	1	100	1	55.000001	22	0	0	0	0	0	0	0	0	0	-1000	0
	1052	354.999995	60.299999	150	-25	1	100	1	354.999995	170.000005	0	0	0	0	0	0	0	0	0	-1000	0
	1077	0	166.630006	200	-50	1	100	1	0	0	0	0	0	0	0	0	0	0	0	-1000	0
	1070	8	6.16	10	0	1	100	1	20	8	0	0	0	0	0	0	0	0	0	-1000	0
	1073	55.000001	10.99	19	-15.000001	1	100	1	55.000001	22	0	0	0	0	0	0	0	0	0	-1000	0
	1036	8	5.13	10	0	1	100	1	20	8	0	0	0	0	0	0	0	0	0	-1000	0
	1065	22	0.24	19	-15.000001	1	100	1	55.000001	22	0	0	0	0	0	0	0	0	0	-1000	0
	1095	354.999995	37.41	150	-25	1	100	1	354.999995	170.000005	0	0	0	0	0	0	0	0	0	-1000	0
	1092	50	-5.13	16	-10	1	100	1	50	0	0	0	0	0	0	0	0	0	0	-1000	0
	1089	55.000001	-9.73	19	-15.000001	1	100	1	55.000001	22	0	0	0	0	0	0	0	0	0	-1000	0
	1091	50	-5.13	16	-10	1	100	1	50	0	0	0	0	0	0	0	0	0	0	-1000	0
	1057	50	-6.97	16	-10	1	100	1	50	0	0	0	0	0	0	0	0	0	0	-1000	0
	1018	154.999995	80.000001	80.000001	-50	1	100	1	154.999995	62	0	0	0	0	0	0	0	0	0	-1000	0
	1010	55.000001	19	19	-15.000001	1	100	1	55.000001	22	0	0	0	0	0	0	0	0	0	-1000	0
	1054	50	-6.97	16	-10	1	100	1	50	0	0	0	0	0	0	0	0	0	0	-1000	0
	1075	55.000001	19	19	-15.000001	1	100	1	55.000001	22	0	0	0	0	0	0	0	0	0	-1000	0
	1081	5	6	6	0	1	100	1	12	5	0	0	0	0	0	0	0	0	0	-1000	0
	1076	354.999995	150	150	-25	1	100	1	354.999995	170.000005	0	0	0	0	0	0	0	0	0	-1000	0
	1082	5	6	6	0	1	100	1	12	5	0	0	0	0	0	0	0	0	0	-1000	0
	1096	354.999995	37.41	150	-25	1	100	1	354.999995	170.000005	0	0	0	0	0	0	0	0	0	-1000	0
	1058	50	-6.97	16	-10	1	100	1	50	0	0	0	0	0	0	0	0	0	0	-1000	0
	1053	296.97001	-7.52	150	-25	1	100	1	354.999995	170.000005	0	0	0	0	0	0	0	0	0	-1000	0
	1071	8	6.16	10	0	1	100	1	20	8	0	0	0	0	0	0	0	0	0	-1000	0
	1072	55.000001	10.99	19	-15.000001	1	100	1	55.000001	22	0	0	0	0	0	0	0	0	0	-1000	0
	1050	50	16	16	-10	1	100	1	50	0	0	0	0	0	0	0	0	0	0	-1000	0
	1008	75.999999	-2.31	30.000001	-25	1	100	1	75.999999	30.000001	0	0	0	0	0	0	0	0	0	-1000	0
];


%% branch data
%    fbus    tbus    r    x    b    rateA    rateB    rateC    ratio    angle    status    angmin    angmax
mpc.branch = [
	301	305	0.022	0.085	0.023	175.0	0.0	0.0	1	0	1	-29.999999999999996	29.999999999999996
	109	112	0.002	0.084	0.0	400.0	0.0	0.0	1	0	1	-29.999999999999996	29.999999999999996
	109	111	0.002	0.084	0.0	400.0	0.0	0.0	1	0	1	-29.999999999999996	29.999999999999996
	315	1080	0.029363	0.880875	0.0	14.758049000000002	0.0	0.0	1	0	1	-29.999999999999996	29.999999999999996
	108	109	0.043	0.165	0.045	175.0	0.0	0.0	1	0	1	-29.999999999999996	29.999999999999996
	201	1032	0.017618	0.528525	0.0	24.596748	0.0	0.0	1	0	1	-29.999999999999996	29.999999999999996
	311	313	0.006	0.048	0.1	500.0	0.0	0.0	1	0	1	-29.999999999999996	29.999999999999996
	209	211	0.002	0.084	0.0	400.0	0.0	0.0	1	0	1	-29.999999999999996	29.999999999999996
	301	1066	0.017618	0.528525	0.0	24.596748	0.0	0.0	1	0	1	-29.999999999999996	29.999999999999996
	215	216	0.002	0.017	0.036	500.0	0.0	0.0	1	0	1	-29.999999999999996	29.999999999999996
	315	1078	0.029363	0.880875	0.0	14.758049000000002	0.0	0.0	1	0	1	-29.999999999999996	29.999999999999996
	118	121	0.003	0.026	0.055	500.0	0.0	0.0	1	0	1	-29.999999999999996	29.999999999999996
	118	121	0.003	0.026	0.055	500.0	0.0	0.0	1	0	1	-29.999999999999996	29.999999999999996
	301	1069	0.00677	0.203099	0.0	64.008284	0.0	0.0	1	0	1	-29.999999999999996	29.999999999999996
	201	1035	0.007504	0.225118	0.0	57.747382	0.0	0.0	1	0	1	-29.999999999999996	29.999999999999996
	201	203	0.055	0.211	0.057	175.0	0.0	0.0	1	0	1	-29.999999999999996	29.999999999999996
	210	212	0.002	0.084	0.0	400.0	0.0	0.0	1	0	1	-29.999999999999996	29.999999999999996
	303	324	0.002	0.084	0.0	400.0	0.0	0.0	1	0	1	-29.999999999999996	29.999999999999996
	218	1052	0.001022	0.030666	0.0	423.92835600000006	0.0	0.0	1	0	1	-29.999999999999996	29.999999999999996
	209	212	0.002	0.084	0.0	400.0	0.0	0.0	1	0	1	-29.999999999999996	29.999999999999996
	208	210	0.043	0.165	0.045	175.0	0.0	0.0	1	0	1	-29.999999999999996	29.999999999999996
	312	313	0.006	0.048	0.1	500.0	0.0	0.0	1	0	1	-29.999999999999996	29.999999999999996
	317	322	0.014	0.105	0.221	500.0	0.0	0.0	1	0	1	-29.999999999999996	29.999999999999996
	106	110	0.014	0.061	2.459	175.0	0.0	0.0	1	0	1	-29.999999999999996	29.999999999999996
	302	306	0.05	0.192	0.052	175.0	0.0	0.0	1	0	1	-29.999999999999996	29.999999999999996
	308	309	0.043	0.165	0.045	175.0	0.0	0.0	1	0	1	-29.999999999999996	29.999999999999996
	121	1020	0.000881	0.026426	0.0	491.934967	0.0	0.0	1	0	1	-29.999999999999996	29.999999999999996
	204	209	0.027	0.104	0.028	175.0	0.0	0.0	1	0	1	-29.999999999999996	29.999999999999996
	121	122	0.009	0.068	0.142	500.0	0.0	0.0	1	0	1	-29.999999999999996	29.999999999999996
	207	208	0.016	0.061	0.017	175.0	0.0	0.0	1	0	1	-29.999999999999996	29.999999999999996
	211	213	0.006	0.048	0.1	500.0	0.0	0.0	1	0	1	-29.999999999999996	29.999999999999996
	317	318	0.002	0.014	0.03	500.0	0.0	0.0	1	0	1	-29.999999999999996	29.999999999999996
	211	214	0.005	0.042	0.088	500.0	0.0	0.0	1	0	1	-29.999999999999996	29.999999999999996
	113	123	0.011	0.087	0.182	500.0	0.0	0.0	1	0	1	-29.999999999999996	29.999999999999996
	202	204	0.033	0.127	0.034	175.0	0.0	0.0	1	0	1	-29.999999999999996	29.999999999999996
	104	109	0.027	0.104	0.028	175.0	0.0	0.0	1	0	1	-29.999999999999996	29.999999999999996
	201	205	0.022	0.085	0.023	175.0	0.0	0.0	1	0	1	-29.999999999999996	29.999999999999996
	325	121	0.012	0.097	0.203	500.0	0.0	0.0	1	0	1	-29.999999999999996	29.999999999999996
	322	1089	0.00677	0.203099	0.0	64.008284	0.0	0.0	1	0	1	-29.999999999999996	29.999999999999996
	217	218	0.002	0.014	0.03	500.0	0.0	0.0	1	0	1	-29.999999999999996	29.999999999999996
	301	302	0.003	0.014	0.461	175.0	0.0	0.0	1	0	1	-29.999999999999996	29.999999999999996
	201	202	0.003	0.014	0.461	175.0	0.0	0.0	1	0	1	-29.999999999999996	29.999999999999996
	302	304	0.033	0.127	0.034	175.0	0.0	0.0	1	0	1	-29.999999999999996	29.999999999999996
	210	211	0.002	0.084	0.0	400.0	0.0	0.0	1	0	1	-29.999999999999996	29.999999999999996
	307	1075	0.00677	0.203099	0.0	64.008284	0.0	0.0	1	0	1	-29.999999999999996	29.999999999999996
	123	1031	0.00677	0.203099	0.0	64.008284	0.0	0.0	1	0	1	-29.999999999999996	29.999999999999996
	319	320	0.005	0.04	0.083	500.0	0.0	0.0	1	0	1	-29.999999999999996	29.999999999999996
	319	320	0.005	0.04	0.083	500.0	0.0	0.0	1	0	1	-29.999999999999996	29.999999999999996
	110	111	0.002	0.084	0.0	400.0	0.0	0.0	1	0	1	-29.999999999999996	29.999999999999996
	107	1009	0.001022	0.030666	0.0	423.92835600000006	0.0	0.0	1	0	1	-29.999999999999996	29.999999999999996
	221	1053	0.001022	0.030666	0.0	423.92835600000006	0.0	0.0	1	0	1	-29.999999999999996	29.999999999999996
	203	224	0.002	0.084	0.0	400.0	0.0	0.0	1	0	1	-29.999999999999996	29.999999999999996
	212	223	0.012	0.097	0.203	500.0	0.0	0.0	1	0	1	-29.999999999999996	29.999999999999996
	215	1050	0.007504	0.225118	0.0	57.747382	0.0	0.0	1	0	1	-29.999999999999996	29.999999999999996
	101	103	0.055	0.211	0.057	175.0	0.0	0.0	1	0	1	-29.999999999999996	29.999999999999996
	110	112	0.002	0.084	0.0	400.0	0.0	0.0	1	0	1	-29.999999999999996	29.999999999999996
	315	1079	0.029363	0.880875	0.0	14.758049000000002	0.0	0.0	1	0	1	-29.999999999999996	29.999999999999996
	221	222	0.009	0.068	0.142	500.0	0.0	0.0	1	0	1	-29.999999999999996	29.999999999999996
	318	321	0.003	0.026	0.055	500.0	0.0	0.0	1	0	1	-29.999999999999996	29.999999999999996
	318	321	0.003	0.026	0.055	500.0	0.0	0.0	1	0	1	-29.999999999999996	29.999999999999996
	107	203	0.042	0.161	0.044	175.0	0.0	0.0	1	0	1	-29.999999999999996	29.999999999999996
	313	1076	0.001022	0.030666	0.0	423.92835600000006	0.0	0.0	1	0	1	-29.999999999999996	29.999999999999996
	117	122	0.014	0.105	0.221	500.0	0.0	0.0	1	0	1	-29.999999999999996	29.999999999999996
	108	110	0.043	0.165	0.045	175.0	0.0	0.0	1	0	1	-29.999999999999996	29.999999999999996
	102	104	0.033	0.127	0.034	175.0	0.0	0.0	1	0	1	-29.999999999999996	29.999999999999996
	113	1010	0.00677	0.203099	0.0	64.008284	0.0	0.0	1	0	1	-29.999999999999996	29.999999999999996
	102	106	0.05	0.192	0.052	175.0	0.0	0.0	1	0	1	-29.999999999999996	29.999999999999996
	323	1095	0.001022	0.030666	0.0	423.92835600000006	0.0	0.0	1	0	1	-29.999999999999996	29.999999999999996
	113	1013	0.00677	0.203099	0.0	64.008284	0.0	0.0	1	0	1	-29.999999999999996	29.999999999999996
	323	325	0.0	0.009	0.0	721.999979	0.0	0.0	1	0	1	-29.999999999999996	29.999999999999996
	315	1084	0.00677	0.203099	0.0	64.008284	0.0	0.0	1	0	1	-29.999999999999996	29.999999999999996
	323	1096	0.001022	0.030666	0.0	423.92835600000006	0.0	0.0	1	0	1	-29.999999999999996	29.999999999999996
	310	312	0.002	0.084	0.0	400.0	0.0	0.0	1	0	1	-29.999999999999996	29.999999999999996
	315	1083	0.00677	0.203099	0.0	64.008284	0.0	0.0	1	0	1	-29.999999999999996	29.999999999999996
	310	311	0.002	0.084	0.0	400.0	0.0	0.0	1	0	1	-29.999999999999996	29.999999999999996
	115	1016	0.029363	0.880875	0.0	14.758049000000002	0.0	0.0	1	0	1	-29.999999999999996	29.999999999999996
	316	319	0.003	0.023	0.049	500.0	0.0	0.0	1	0	1	-29.999999999999996	29.999999999999996
	307	1074	0.00677	0.203099	0.0	64.008284	0.0	0.0	1	0	1	-29.999999999999996	29.999999999999996
	118	1019	0.001022	0.030666	0.0	423.92835600000006	0.0	0.0	1	0	1	-29.999999999999996	29.999999999999996
	208	209	0.043	0.165	0.045	175.0	0.0	0.0	1	0	1	-29.999999999999996	29.999999999999996
	321	322	0.009	0.068	0.142	500.0	0.0	0.0	1	0	1	-29.999999999999996	29.999999999999996
	123	1030	0.00677	0.203099	0.0	64.008284	0.0	0.0	1	0	1	-29.999999999999996	29.999999999999996
	115	1015	0.029363	0.880875	0.0	14.758049000000002	0.0	0.0	1	0	1	-29.999999999999996	29.999999999999996
	307	308	0.016	0.061	0.017	175.0	0.0	0.0	1	0	1	-29.999999999999996	29.999999999999996
	219	220	0.005	0.04	0.083	500.0	0.0	0.0	1	0	1	-29.999999999999996	29.999999999999996
	219	220	0.005	0.04	0.083	500.0	0.0	0.0	1	0	1	-29.999999999999996	29.999999999999996
	101	102	0.003	0.014	0.461	175.0	0.0	0.0	1	0	1	-29.999999999999996	29.999999999999996
	223	1063	0.00677	0.203099	0.0	64.008284	0.0	0.0	1	0	1	-29.999999999999996	29.999999999999996
	215	221	0.006	0.049	0.103	500.0	0.0	0.0	1	0	1	-29.999999999999996	29.999999999999996
	215	221	0.006	0.049	0.103	500.0	0.0	0.0	1	0	1	-29.999999999999996	29.999999999999996
	303	309	0.031	0.119	0.032	175.0	0.0	0.0	1	0	1	-29.999999999999996	29.999999999999996
	101	105	0.022	0.085	0.023	175.0	0.0	0.0	1	0	1	-29.999999999999996	29.999999999999996
	313	323	0.011	0.087	0.182	500.0	0.0	0.0	1	0	1	-29.999999999999996	29.999999999999996
	223	1060	0.002258	0.067754	0.0	191.870403	0.0	0.0	1	0	1	-29.999999999999996	29.999999999999996
	215	1046	0.00677	0.203099	0.0	64.008284	0.0	0.0	1	0	1	-29.999999999999996	29.999999999999996
	314	1077	0.00197	0.059091	0.0	220.000005	0.0	0.0	1	0	1	-29.999999999999996	29.999999999999996
	309	312	0.002	0.084	0.0	400.0	0.0	0.0	1	0	1	-29.999999999999996	29.999999999999996
	305	310	0.023	0.088	0.024	175.0	0.0	0.0	1	0	1	-29.999999999999996	29.999999999999996
	316	317	0.003	0.026	0.055	500.0	0.0	0.0	1	0	1	-29.999999999999996	29.999999999999996
	107	108	0.016	0.061	0.017	175.0	0.0	0.0	1	0	1	-29.999999999999996	29.999999999999996
	112	123	0.012	0.097	0.203	500.0	0.0	0.0	1	0	1	-29.999999999999996	29.999999999999996
	315	1085	0.00484	0.145197	0.0	89.533514	0.0	0.0	1	0	1	-29.999999999999996	29.999999999999996
	223	1064	0.00677	0.203099	0.0	64.008284	0.0	0.0	1	0	1	-29.999999999999996	29.999999999999996
	113	1011	0.00677	0.203099	0.0	64.008284	0.0	0.0	1	0	1	-29.999999999999996	29.999999999999996
	113	1012	0.00677	0.203099	0.0	64.008284	0.0	0.0	1	0	1	-29.999999999999996	29.999999999999996
	216	217	0.003	0.026	0.055	500.0	0.0	0.0	1	0	1	-29.999999999999996	29.999999999999996
	315	1082	0.029363	0.880875	0.0	14.758049000000002	0.0	0.0	1	0	1	-29.999999999999996	29.999999999999996
	315	1081	0.029363	0.880875	0.0	14.758049000000002	0.0	0.0	1	0	1	-29.999999999999996	29.999999999999996
	205	210	0.023	0.088	0.024	175.0	0.0	0.0	1	0	1	-29.999999999999996	29.999999999999996
	115	1017	0.002258	0.067754	0.0	191.870403	0.0	0.0	1	0	1	-29.999999999999996	29.999999999999996
	222	1059	0.007504	0.225118	0.0	57.747382	0.0	0.0	1	0	1	-29.999999999999996	29.999999999999996
	318	223	0.013	0.104	0.218	500.0	0.0	0.0	1	0	1	-29.999999999999996	29.999999999999996
	301	303	0.055	0.211	0.057	175.0	0.0	0.0	1	0	1	-29.999999999999996	29.999999999999996
	222	1055	0.007504	0.225118	0.0	57.747382	0.0	0.0	1	0	1	-29.999999999999996	29.999999999999996
	223	1062	0.001035	0.031036	0.0	418.86754	0.0	0.0	1	0	1	-29.999999999999996	29.999999999999996
	222	1054	0.007504	0.225118	0.0	57.747382	0.0	0.0	1	0	1	-29.999999999999996	29.999999999999996
	223	1061	0.002258	0.067754	0.0	191.870403	0.0	0.0	1	0	1	-29.999999999999996	29.999999999999996
	301	1067	0.017618	0.528525	0.0	24.596748	0.0	0.0	1	0	1	-29.999999999999996	29.999999999999996
	223	1065	0.00677	0.203099	0.0	64.008284	0.0	0.0	1	0	1	-29.999999999999996	29.999999999999996
	322	1093	0.007504	0.225118	0.0	57.747382	0.0	0.0	1	0	1	-29.999999999999996	29.999999999999996
	215	224	0.007	0.052	0.109	500.0	0.0	0.0	1	0	1	-29.999999999999996	29.999999999999996
	220	223	0.003	0.022	0.046	500.0	0.0	0.0	1	0	1	-29.999999999999996	29.999999999999996
	220	223	0.003	0.022	0.046	500.0	0.0	0.0	1	0	1	-29.999999999999996	29.999999999999996
	115	121	0.006	0.049	0.103	500.0	0.0	0.0	1	0	1	-29.999999999999996	29.999999999999996
	115	121	0.006	0.049	0.103	500.0	0.0	0.0	1	0	1	-29.999999999999996	29.999999999999996
	214	216	0.005	0.059	0.082	500.0	0.0	0.0	1	0	1	-29.999999999999996	29.999999999999996
	318	1087	0.001022	0.030666	0.0	423.92835600000006	0.0	0.0	1	0	1	-29.999999999999996	29.999999999999996
	207	1040	0.00677	0.203099	0.0	64.008284	0.0	0.0	1	0	1	-29.999999999999996	29.999999999999996
	222	1058	0.007504	0.225118	0.0	57.747382	0.0	0.0	1	0	1	-29.999999999999996	29.999999999999996
	122	1025	0.007504	0.225118	0.0	57.747382	0.0	0.0	1	0	1	-29.999999999999996	29.999999999999996
	322	1092	0.007504	0.225118	0.0	57.747382	0.0	0.0	1	0	1	-29.999999999999996	29.999999999999996
	101	1003	0.004821	0.144641	0.0	89.877474	0.0	0.0	1	0	1	-29.999999999999996	29.999999999999996
	302	1071	0.017618	0.528525	0.0	24.596748	0.0	0.0	1	0	1	-29.999999999999996	29.999999999999996
	101	1004	0.004821	0.144641	0.0	89.877474	0.0	0.0	1	0	1	-29.999999999999996	29.999999999999996
	111	113	0.006	0.048	0.1	500.0	0.0	0.0	1	0	1	-29.999999999999996	29.999999999999996
	116	117	0.003	0.026	0.055	500.0	0.0	0.0	1	0	1	-29.999999999999996	29.999999999999996
	222	1056	0.007504	0.225118	0.0	57.747382	0.0	0.0	1	0	1	-29.999999999999996	29.999999999999996
	111	114	0.005	0.042	0.088	500.0	0.0	0.0	1	0	1	-29.999999999999996	29.999999999999996
	322	1091	0.007504	0.225118	0.0	57.747382	0.0	0.0	1	0	1	-29.999999999999996	29.999999999999996
	122	1021	0.007504	0.225118	0.0	57.747382	0.0	0.0	1	0	1	-29.999999999999996	29.999999999999996
	103	109	0.031	0.119	0.032	175.0	0.0	0.0	1	0	1	-29.999999999999996	29.999999999999996
	115	116	0.002	0.017	0.036	500.0	0.0	0.0	1	0	1	-29.999999999999996	29.999999999999996
	212	213	0.006	0.048	0.1	500.0	0.0	0.0	1	0	1	-29.999999999999996	29.999999999999996
	122	1022	0.007504	0.225118	0.0	57.747382	0.0	0.0	1	0	1	-29.999999999999996	29.999999999999996
	216	219	0.003	0.023	0.049	500.0	0.0	0.0	1	0	1	-29.999999999999996	29.999999999999996
	123	217	0.01	0.074	0.155	500.0	0.0	0.0	1	0	1	-29.999999999999996	29.999999999999996
	217	222	0.014	0.105	0.221	500.0	0.0	0.0	1	0	1	-29.999999999999996	29.999999999999996
	304	309	0.027	0.104	0.028	175.0	0.0	0.0	1	0	1	-29.999999999999996	29.999999999999996
	312	323	0.012	0.097	0.203	500.0	0.0	0.0	1	0	1	-29.999999999999996	29.999999999999996
	213	1042	0.001022	0.030666	0.0	423.92835600000006	0.0	0.0	1	0	1	-29.999999999999996	29.999999999999996
	302	1072	0.00677	0.203099	0.0	64.008284	0.0	0.0	1	0	1	-29.999999999999996	29.999999999999996
	202	1039	0.004821	0.144641	0.0	89.877474	0.0	0.0	1	0	1	-29.999999999999996	29.999999999999996
	115	124	0.007	0.052	0.109	500.0	0.0	0.0	1	0	1	-29.999999999999996	29.999999999999996
	113	215	0.01	0.075	0.158	500.0	0.0	0.0	1	0	1	-29.999999999999996	29.999999999999996
	101	1001	0.017618	0.528525	0.0	24.596748	0.0	0.0	1	0	1	-29.999999999999996	29.999999999999996
	101	1002	0.017618	0.528525	0.0	24.596748	0.0	0.0	1	0	1	-29.999999999999996	29.999999999999996
	122	1024	0.007504	0.225118	0.0	57.747382	0.0	0.0	1	0	1	-29.999999999999996	29.999999999999996
	302	1070	0.017618	0.528525	0.0	24.596748	0.0	0.0	1	0	1	-29.999999999999996	29.999999999999996
	222	1057	0.007504	0.225118	0.0	57.747382	0.0	0.0	1	0	1	-29.999999999999996	29.999999999999996
	202	206	0.05	0.192	0.052	175.0	0.0	0.0	1	0	1	-29.999999999999996	29.999999999999996
	308	310	0.043	0.165	0.045	175.0	0.0	0.0	1	0	1	-29.999999999999996	29.999999999999996
	103	124	0.002	0.084	0.0	400.0	0.0	0.0	1	0	1	-29.999999999999996	29.999999999999996
	214	1045	0.00197	0.059091	0.0	220.000005	0.0	0.0	1	0	1	-29.999999999999996	29.999999999999996
	202	1036	0.017618	0.528525	0.0	24.596748	0.0	0.0	1	0	1	-29.999999999999996	29.999999999999996
	306	310	0.014	0.061	2.459	175.0	0.0	0.0	1	0	1	-29.999999999999996	29.999999999999996
	322	1090	0.00677	0.203099	0.0	64.008284	0.0	0.0	1	0	1	-29.999999999999996	29.999999999999996
	213	1044	0.00677	0.203099	0.0	64.008284	0.0	0.0	1	0	1	-29.999999999999996	29.999999999999996
	119	120	0.005	0.04	0.083	500.0	0.0	0.0	1	0	1	-29.999999999999996	29.999999999999996
	119	120	0.005	0.04	0.083	500.0	0.0	0.0	1	0	1	-29.999999999999996	29.999999999999996
	112	113	0.006	0.048	0.1	500.0	0.0	0.0	1	0	1	-29.999999999999996	29.999999999999996
	114	116	0.005	0.059	0.082	500.0	0.0	0.0	1	0	1	-29.999999999999996	29.999999999999996
	215	1047	0.00677	0.203099	0.0	64.008284	0.0	0.0	1	0	1	-29.999999999999996	29.999999999999996
	122	1023	0.007504	0.225118	0.0	57.747382	0.0	0.0	1	0	1	-29.999999999999996	29.999999999999996
	213	1043	0.00677	0.203099	0.0	64.008284	0.0	0.0	1	0	1	-29.999999999999996	29.999999999999996
	215	1048	0.007504	0.225118	0.0	57.747382	0.0	0.0	1	0	1	-29.999999999999996	29.999999999999996
	207	1041	0.00677	0.203099	0.0	64.008284	0.0	0.0	1	0	1	-29.999999999999996	29.999999999999996
	322	1094	0.007504	0.225118	0.0	57.747382	0.0	0.0	1	0	1	-29.999999999999996	29.999999999999996
	102	1005	0.017618	0.528525	0.0	24.596748	0.0	0.0	1	0	1	-29.999999999999996	29.999999999999996
	105	110	0.023	0.088	0.024	175.0	0.0	0.0	1	0	1	-29.999999999999996	29.999999999999996
	116	119	0.003	0.023	0.049	500.0	0.0	0.0	1	0	1	-29.999999999999996	29.999999999999996
	114	1014	0.00197	0.059091	0.0	220.000005	0.0	0.0	1	0	1	-29.999999999999996	29.999999999999996
	123	1029	0.00677	0.203099	0.0	64.008284	0.0	0.0	1	0	1	-29.999999999999996	29.999999999999996
	102	1008	0.004821	0.144641	0.0	89.877474	0.0	0.0	1	0	1	-29.999999999999996	29.999999999999996
	302	1073	0.00677	0.203099	0.0	64.008284	0.0	0.0	1	0	1	-29.999999999999996	29.999999999999996
	102	1006	0.017618	0.528525	0.0	24.596748	0.0	0.0	1	0	1	-29.999999999999996	29.999999999999996
	117	118	0.002	0.014	0.03	500.0	0.0	0.0	1	0	1	-29.999999999999996	29.999999999999996
	213	223	0.011	0.087	0.182	500.0	0.0	0.0	1	0	1	-29.999999999999996	29.999999999999996
	315	321	0.006	0.049	0.103	500.0	0.0	0.0	1	0	1	-29.999999999999996	29.999999999999996
	315	321	0.006	0.049	0.103	500.0	0.0	0.0	1	0	1	-29.999999999999996	29.999999999999996
	120	123	0.003	0.022	0.046	500.0	0.0	0.0	1	0	1	-29.999999999999996	29.999999999999996
	120	123	0.003	0.022	0.046	500.0	0.0	0.0	1	0	1	-29.999999999999996	29.999999999999996
	320	323	0.003	0.022	0.046	500.0	0.0	0.0	1	0	1	-29.999999999999996	29.999999999999996
	320	323	0.003	0.022	0.046	500.0	0.0	0.0	1	0	1	-29.999999999999996	29.999999999999996
	202	1037	0.017618	0.528525	0.0	24.596748	0.0	0.0	1	0	1	-29.999999999999996	29.999999999999996
	216	1051	0.002258	0.067754	0.0	191.870403	0.0	0.0	1	0	1	-29.999999999999996	29.999999999999996
	202	1038	0.004821	0.144641	0.0	89.877474	0.0	0.0	1	0	1	-29.999999999999996	29.999999999999996
	309	311	0.002	0.084	0.0	400.0	0.0	0.0	1	0	1	-29.999999999999996	29.999999999999996
	206	210	0.014	0.061	2.459	175.0	0.0	0.0	1	0	1	-29.999999999999996	29.999999999999996
	215	1049	0.007504	0.225118	0.0	57.747382	0.0	0.0	1	0	1	-29.999999999999996	29.999999999999996
	315	316	0.002	0.017	0.036	500.0	0.0	0.0	1	0	1	-29.999999999999996	29.999999999999996
...
];


%% bus names
mpc.bus_name = {
	'ABEL'
	'ADAMS'
	'ADLER'
	'AGRICOLA'
	'AIKEN'
	'ALBER'
	'ALDER'
	'ALGER'
	'ALI'
	'ALLEN'
	'ANNA'
	'ARCHER'
	'ARNE'
	'ARNOLD'
	'ARTHUR'
	'ASSER'
	'ASTON'
	'ASTOR'
	'ATTAR'
	'ATTILA'
	'ATTLEE'
	'AUBREY'
	'AUSTEN'
	'AVERY'
	'BACH'
	'BACON'
	'BAFFIN'
	'BAILEY'
	'BAIN'
	'BAJER'
	'BAKER'
	'BALCH'
	'BALZAC'
	'BANKS'
	'BARDEEN'
	'BARKLA'
	'BARLOW'
	'BARRY'
	'BARTON'
	'BASOV'
	'BATES'
	'BAYLE'
	'BEDE'
	'BEETHOVEN'
	'BEHRING'
	'BELL'
	'BLOCH'
	'BORDET'
	'CABELL'
	'CABOT'
	'CAESAR'
	'CAINE'
	'CALVIN'
	'CAMUS'
	'CAREW'
	'CARREL'
	'CARTER'
	'CARUSO'
	'CARY'
	'CAXTON'
	'CECIL'
	'CHAIN'
	'CHASE'
	'CHIFA'
	'CHUHSI'
	'CLARK'
	'CLAY'
	'CLIVE'
	'COBB'
	'COLE'
	'COMTE'
	'CURIE'
	'CURTISS'
	'ABEL_101_Gen1'
	'ABEL_101_Gen2'
	'ABEL_101_Gen3'
	'ABEL_101_Gen4'
	'ADAMS_102_Gen1'
	'ADAMS_102_Gen2'
	'ADAMS_102_Gen3'
	'ADAMS_102_Gen4'
	'ALDER_107_Gen1'
	'ARNE_113_Gen1'
	'ARNE_113_Gen2'
	'ARNE_113_Gen3'
	'ARNE_113_Gen4'
	'ARNOLD_114_Gen1'
	'ARTHUR_115_Gen1'
	'ARTHUR_115_Gen2'
	'ARTHUR_115_Gen3'
	'ASSER_116_Gen1'
	'ASTOR_118_Gen1'
	'ATTLEE_121_Gen1'
	'AUBREY_122_Gen1'
	'AUBREY_122_Gen2'
	'AUBREY_122_Gen3'
	'AUBREY_122_Gen4'
	'AUBREY_122_Gen5'
	'AUBREY_122_Gen6'
	'AUSTEN_123_Gen1'
	'AUSTEN_123_Gen2'
	'AUSTEN_123_Gen3'
	'AUSTEN_123_Gen4'
	'AUSTEN_123_Gen5'
	'BACH_201_Gen1'
	'BACH_201_Gen2'
	'BACH_201_Gen3'
	'BACH_201_Gen4'
	'BACON_202_Gen1'
	'BACON_202_Gen2'
	'BACON_202_Gen3'
	'BACON_202_Gen4'
	'BAKER_207_Gen1'
	'BAKER_207_Gen2'
	'BARLOW_213_Gen1'
	'BARLOW_213_Gen2'
	'BARLOW_213_Gen3'
	'BARRY_214_Gen1'
	'BARTON_215_Gen1'
	'BARTON_215_Gen2'
	'BARTON_215_Gen3'
	'BARTON_215_Gen4'
	'BARTON_215_Gen5'
	'BASOV_216_Gen1'
	'BAYLE_218_Gen1'
	'BEHRING_221_Gen1'
	'BELL_222_Gen1'
	'BELL_222_Gen2'
	'BELL_222_Gen3'
	'BELL_222_Gen4'
	'BELL_222_Gen5'
	'BELL_222_Gen6'
	'BLOCH_223_Gen1'
	'BLOCH_223_Gen2'
	'BLOCH_223_Gen3'
	'BLOCH_223_Gen4'
	'BLOCH_223_Gen5'
	'BLOCH_223_Gen6'
	'CABELL_301_Gen1'
	'CABELL_301_Gen2'
	'CABELL_301_Gen3'
	'CABELL_301_Gen4'
	'CABOT_302_Gen1'
	'CABOT_302_Gen2'
	'CABOT_302_Gen3'
	'CABOT_302_Gen4'
	'CAREW_307_Gen1'
	'CAREW_307_Gen2'
	'CECIL_313_Gen1'
	'CHAIN_314_Gen1'
	'CHASE_315_Gen1'
	'CHASE_315_Gen2'
	'CHASE_315_Gen3'
	'CHASE_315_Gen4'
	'CHASE_315_Gen5'
	'CHASE_315_Gen6'
	'CHASE_315_Gen7'
	'CHASE_315_Gen8'
	'CHIFA_316_Gen1'
	'CLARK_318_Gen1'
	'COBB_321_Gen1'
	'COLE_322_Gen1'
	'COLE_322_Gen2'
	'COLE_322_Gen3'
	'COLE_322_Gen4'
	'COLE_322_Gen5'
	'COLE_322_Gen6'
	'COMTE_323_Gen1'
	'COMTE_323_Gen2'
};


%% gen_id data
%column_names% gen_id 
mpc.gen_id = {
	'1'
	'5'
	'1'
	'2'
	'6'
	'1'
	'1'
	'1'
	'3'
	'1'
	'1'
	'4'
	'6'
	'2'
	'2'
	'1'
	'1'
	'4'
	'2'
	'1'
	'1'
	'2'
	'2'
	'2'
	'1'
	'3'
	'3'
	'1'
	'3'
	'5'
	'4'
	'1'
	'2'
	'5'
	'3'
	'6'
	'4'
	'1'
	'3'
	'2'
	'1'
	'3'
	'7'
	'2'
	'3'
	'2'
	'4'
	'3'
	'3'
	'4'
	'1'
	'3'
	'2'
	'2'
	'4'
	'3'
	'8'
	'5'
	'1'
	'2'
	'4'
	'6'
	'1'
	'3'
	'3'
	'1'
	'1'
	'2'
	'4'
	'2'
	'1'
	'1'
	'1'
	'1'
	'4'
	'1'
	'6'
	'1'
	'4'
	'1'
	'3'
	'4'
	'1'
	'1'
	'1'
	'2'
	'4'
	'1'
	'5'
	'2'
	'5'
	'1'
	'2'
	'3'
	'5'
	'4'
};


%%-----  OPF Data  -----%%

%% generator cost data
%    1    startup    shutdown    n    x1    y1    ...    xn    yn
%    2    startup    shutdown    n    c(n-1)    ...    c0
mpc.gencost = [
	2	0.0	0.0	2	10.0	0.01
	2	0.0	0.0	2	10.0	0.01
	2	0.0	0.0	2	10.0	0.01
	2	0.0	0.0	2	10.0	0.01
	2	0.0	0.0	2	10.0	0.01
	2	0.0	0.0	2	10.0	0.01
	2	0.0	0.0	2	10.0	0.01
	2	0.0	0.0	2	10.0	0.01
	2	0.0	0.0	2	10.0	0.01
	2	0.0	0.0	2	10.0	0.01
	2	0.0	0.0	2	10.0	0.01
	2	0.0	0.0	2	10.0	0.01
	2	0.0	0.0	2	10.0	0.01
	2	0.0	0.0	2	10.0	0.01
	2	0.0	0.0	2	10.0	0.01
	2	0.0	0.0	2	10.0	0.01
	2	0.0	0.0	2	10.0	0.01
	2	0.0	0.0	2	10.0	0.01
	2	0.0	0.0	2	10.0	0.01
	2	0.0	0.0	2	10.0	0.01
	2	0.0	0.0	2	10.0	0.01
	2	0.0	0.0	2	10.0	0.01
	2	0.0	0.0	2	10.0	0.01
	2	0.0	0.0	2	10.0	0.01
	2	0.0	0.0	2	10.0	0.01
	2	0.0	0.0	2	10.0	0.01
	2	0.0	0.0	2	10.0	0.01
	2	0.0	0.0	2	10.0	0.01
	2	0.0	0.0	2	10.0	0.01
	2	0.0	0.0	2	10.0	0.01
	2	0.0	0.0	2	10.0	0.01
	2	0.0	0.0	2	10.0	0.01
	2	0.0	0.0	2	10.0	0.01
	2	0.0	0.0	2	10.0	0.01
	2	0.0	0.0	2	10.0	0.01
	2	0.0	0.0	2	10.0	0.01
	2	0.0	0.0	2	10.0	0.01
	2	0.0	0.0	2	10.0	0.01
	2	0.0	0.0	2	10.0	0.01
	2	0.0	0.0	2	10.0	0.01
	2	0.0	0.0	2	10.0	0.01
	2	0.0	0.0	2	10.0	0.01
	2	0.0	0.0	2	10.0	0.01
	2	0.0	0.0	2	10.0	0.01
	2	0.0	0.0	2	10.0	0.01
	2	0.0	0.0	2	10.0	0.01
	2	0.0	0.0	2	10.0	0.01
	2	0.0	0.0	2	10.0	0.01
	2	0.0	0.0	2	10.0	0.01
	2	0.0	0.0	2	10.0	0.01
	2	0.0	0.0	2	10.0	0.01
	2	0.0	0.0	2	10.0	0.01
	2	0.0	0.0	2	10.0	0.01
	2	0.0	0.0	2	10.0	0.01
	2	0.0	0.0	2	10.0	0.01
	2	0.0	0.0	2	10.0	0.01
	2	0.0	0.0	2	10.0	0.01
	2	0.0	0.0	2	10.0	0.01
	2	0.0	0.0	2	10.0	0.01
	2	0.0	0.0	2	10.0	0.01
	2	0.0	0.0	2	10.0	0.01
	2	0.0	0.0	2	10.0	0.01
	2	0.0	0.0	2	10.0	0.01
	2	0.0	0.0	2	10.0	0.01
	2	0.0	0.0	2	10.0	0.01
	2	0.0	0.0	2	10.0	0.01
	2	0.0	0.0	2	10.0	0.01
	2	0.0	0.0	2	10.0	0.01
	2	0.0	0.0	2	10.0	0.01
	2	0.0	0.0	2	10.0	0.01
	2	0.0	0.0	2	10.0	0.01
	2	0.0	0.0	2	10.0	0.01
	2	0.0	0.0	2	10.0	0.01
	2	0.0	0.0	2	10.0	0.01
	2	0.0	0.0	2	10.0	0.01
	2	0.0	0.0	2	10.0	0.01
	2	0.0	0.0	2	10.0	0.01
	2	0.0	0.0	2	10.0	0.01
	2	0.0	0.0	2	10.0	0.01
	2	0.0	0.0	2	10.0	0.01
	2	0.0	0.0	2	10.0	0.01
	2	0.0	0.0	2	10.0	0.01
	2	0.0	0.0	2	10.0	0.01
	2	0.0	0.0	2	10.0	0.01
	2	0.0	0.0	2	10.0	0.01
	2	0.0	0.0	2	10.0	0.01
	2	0.0	0.0	2	10.0	0.01
	2	0.0	0.0	2	10.0	0.01
	2	0.0	0.0	2	10.0	0.01
	2	0.0	0.0	2	10.0	0.01
	2	0.0	0.0	2	10.0	0.01
	2	0.0	0.0	2	10.0	0.01
	2	0.0	0.0	2	10.0	0.01
	2	0.0	0.0	2	10.0	0.01
	2	0.0	0.0	2	10.0	0.01
	2	0.0	0.0	2	10.0	0.01
];


%%-----  GMD - Thermal Data  -----%%

%% gmd_bus data
%column_names% g_gnd name status parent_index parent_type bus_i 
mpc.gmd_bus = {
	2.2093442003610066	'dc_sub1'	1	1	'sub'	1
	2.2093442003610066	'dc_sub2'	1	2	'sub'	2
	2.603739490656481	'dc_sub3'	1	3	'sub'	3
	1.275565521974167	'dc_sub4'	1	4	'sub'	4
	1.275565521974167	'dc_sub5'	1	5	'sub'	5
	1.275565521974167	'dc_sub6'	1	6	'sub'	6
	1.5622412537923407	'dc_sub7'	1	7	'sub'	7
	1.275565521974167	'dc_sub8'	1	8	'sub'	8
	3.3614123310049955	'dc_sub9'	1	9	'sub'	9
	3.682237622158233	'dc_sub10'	1	10	'sub'	10
	2.603739490656481	'dc_sub11'	1	11	'sub'	11
	3.3614123310049955	'dc_sub12'	1	12	'sub'	12
	2.603739490656481	'dc_sub13'	1	13	'sub'	13
	2.125940728772482	'dc_sub14'	1	14	'sub'	14
	2.603739490656481	'dc_sub15'	1	15	'sub'	15
	2.125940728772482	'dc_sub16'	1	16	'sub'	16
	2.125940728772482	'dc_sub17'	1	17	'sub'	17
	2.603739490656481	'dc_sub18'	1	18	'sub'	18
	4.251881457544964	'dc_sub19'	1	19	'sub'	19
	3.977265947842134	'dc_sub20'	1	20	'sub'	20
	2.2093442003610066	'dc_sub21'	1	21	'sub'	21
	2.2093442003610066	'dc_sub22'	1	22	'sub'	22
	2.603739490656481	'dc_sub23'	1	23	'sub'	23
	1.275565521974167	'dc_sub24'	1	24	'sub'	24
	1.275565521974167	'dc_sub25'	1	25	'sub'	25
	1.275565521974167	'dc_sub26'	1	26	'sub'	26
	1.8039210026914503	'dc_sub27'	1	27	'sub'	27
	1.275565521974167	'dc_sub28'	1	28	'sub'	28
	3.3614123310049955	'dc_sub29'	1	29	'sub'	29
	3.3614123310049955	'dc_sub30'	1	30	'sub'	30
	2.603739490656481	'dc_sub31'	1	31	'sub'	31
	3.977265947842134	'dc_sub32'	1	32	'sub'	32
	2.603739490656481	'dc_sub33'	1	33	'sub'	33
	2.125940728772482	'dc_sub34'	1	34	'sub'	34
	2.603739490656481	'dc_sub35'	1	35	'sub'	35
	2.125940728772482	'dc_sub36'	1	36	'sub'	36
	2.125940728772482	'dc_sub37'	1	37	'sub'	37
	2.603739490656481	'dc_sub38'	1	38	'sub'	38
	4.251881457544964	'dc_sub39'	1	39	'sub'	39
	4.251881457544964	'dc_sub40'	1	40	'sub'	40
	2.2093442003610066	'dc_sub41'	1	41	'sub'	41
	2.2093442003610066	'dc_sub42'	1	42	'sub'	42
	2.603739490656481	'dc_sub43'	1	43	'sub'	43
	1.275565521974167	'dc_sub44'	1	44	'sub'	44
	1.275565521974167	'dc_sub45'	1	45	'sub'	45
	1.275565521974167	'dc_sub46'	1	46	'sub'	46
	1.8039210026914503	'dc_sub47'	1	47	'sub'	47
	1.275565521974167	'dc_sub48'	1	48	'sub'	48
	3.3614123310049955	'dc_sub49'	1	49	'sub'	49
	2.603739490656481	'dc_sub50'	1	50	'sub'	50
	2.603739490656481	'dc_sub51'	1	51	'sub'	51
	4.753755466818787	'dc_sub52'	1	52	'sub'	52
	2.603739490656481	'dc_sub53'	1	53	'sub'	53
	2.125940728772482	'dc_sub54'	1	54	'sub'	54
	2.603739490656481	'dc_sub55'	1	55	'sub'	55
	2.125940728772482	'dc_sub56'	1	56	'sub'	56
	2.125940728772482	'dc_sub57'	1	57	'sub'	57
	2.603739490656481	'dc_sub58'	1	58	'sub'	58
	4.251881457544964	'dc_sub59'	1	59	'sub'	59
	3.006533196636291	'dc_sub60'	1	60	'sub'	60
	2.125940728772482	'dc_sub61'	1	61	'sub'	61
	0.0	'dc_ABEL'	1	101	'bus'	62
	0.0	'dc_ADAMS'	1	102	'bus'	63
	0.0	'dc_ADLER'	1	103	'bus'	64
	0.0	'dc_AGRICOLA'	1	104	'bus'	65
	0.0	'dc_AIKEN'	1	105	'bus'	66
	0.0	'dc_ALBER'	1	106	'bus'	67
	0.0	'dc_ALDER'	1	107	'bus'	68
	0.0	'dc_ALGER'	1	108	'bus'	69
	0.0	'dc_ALI'	1	109	'bus'	70
	0.0	'dc_ALLEN'	1	110	'bus'	71
	0.0	'dc_ANNA'	1	111	'bus'	72
	0.0	'dc_ARCHER'	1	112	'bus'	73
	0.0	'dc_ARNE'	1	113	'bus'	74
	0.0	'dc_ARNOLD'	1	114	'bus'	75
	0.0	'dc_ARTHUR'	1	115	'bus'	76
	0.0	'dc_ASSER'	1	116	'bus'	77
	0.0	'dc_ASTON'	1	117	'bus'	78
	0.0	'dc_ASTOR'	1	118	'bus'	79
	0.0	'dc_ATTAR'	1	119	'bus'	80
	0.0	'dc_ATTILA'	1	120	'bus'	81
	0.0	'dc_ATTLEE'	1	121	'bus'	82
	0.0	'dc_AUBREY'	1	122	'bus'	83
	0.0	'dc_AUSTEN'	1	123	'bus'	84
	0.0	'dc_AVERY'	1	124	'bus'	85
	0.0	'dc_BACH'	1	201	'bus'	86
	0.0	'dc_BACON'	1	202	'bus'	87
	0.0	'dc_BAFFIN'	1	203	'bus'	88
	0.0	'dc_BAILEY'	1	204	'bus'	89
	0.0	'dc_BAIN'	1	205	'bus'	90
	0.0	'dc_BAJER'	1	206	'bus'	91
	0.0	'dc_BAKER'	1	207	'bus'	92
	0.0	'dc_BALCH'	1	208	'bus'	93
	0.0	'dc_BALZAC'	1	209	'bus'	94
	0.0	'dc_BANKS'	1	210	'bus'	95
	0.0	'dc_BARDEEN'	1	211	'bus'	96
	0.0	'dc_BARKLA'	1	212	'bus'	97
	0.0	'dc_BARLOW'	1	213	'bus'	98
	0.0	'dc_BARRY'	1	214	'bus'	99
	0.0	'dc_BARTON'	1	215	'bus'	100
	0.0	'dc_BASOV'	1	216	'bus'	101
	0.0	'dc_BATES'	1	217	'bus'	102
	0.0	'dc_BAYLE'	1	218	'bus'	103
	0.0	'dc_BEDE'	1	219	'bus'	104
	0.0	'dc_BEETHOVEN'	1	220	'bus'	105
	0.0	'dc_BEHRING'	1	221	'bus'	106
	0.0	'dc_BELL'	1	222	'bus'	107
	0.0	'dc_BLOCH'	1	223	'bus'	108
	0.0	'dc_BORDET'	1	224	'bus'	109
	0.0	'dc_CABELL'	1	301	'bus'	110
	0.0	'dc_CABOT'	1	302	'bus'	111
	0.0	'dc_CAESAR'	1	303	'bus'	112
	0.0	'dc_CAINE'	1	304	'bus'	113
	0.0	'dc_CALVIN'	1	305	'bus'	114
	0.0	'dc_CAMUS'	1	306	'bus'	115
	0.0	'dc_CAREW'	1	307	'bus'	116
	0.0	'dc_CARREL'	1	308	'bus'	117
	0.0	'dc_CARTER'	1	309	'bus'	118
	0.0	'dc_CARUSO'	1	310	'bus'	119
	0.0	'dc_CARY'	1	311	'bus'	120
	0.0	'dc_CAXTON'	1	312	'bus'	121
	0.0	'dc_CECIL'	1	313	'bus'	122
	0.0	'dc_CHAIN'	1	314	'bus'	123
	0.0	'dc_CHASE'	1	315	'bus'	124
	0.0	'dc_CHIFA'	1	316	'bus'	125
	0.0	'dc_CHUHSI'	1	317	'bus'	126
	0.0	'dc_CLARK'	1	318	'bus'	127
	0.0	'dc_CLAY'	1	319	'bus'	128
	0.0	'dc_CLIVE'	1	320	'bus'	129
	0.0	'dc_COBB'	1	321	'bus'	130
	0.0	'dc_COLE'	1	322	'bus'	131
	0.0	'dc_COMTE'	1	323	'bus'	132
	0.0	'dc_CURIE'	1	324	'bus'	133
	0.0	'dc_CURTISS'	1	325	'bus'	134
	0.0	'dc_ABEL_101_Gen1'	1	1001	'bus'	135
	0.0	'dc_ABEL_101_Gen2'	1	1002	'bus'	136
	0.0	'dc_ABEL_101_Gen3'	1	1003	'bus'	137
	0.0	'dc_ABEL_101_Gen4'	1	1004	'bus'	138
	0.0	'dc_ADAMS_102_Gen1'	1	1005	'bus'	139
	0.0	'dc_ADAMS_102_Gen2'	1	1006	'bus'	140
	0.0	'dc_ADAMS_102_Gen3'	1	1007	'bus'	141
	0.0	'dc_ADAMS_102_Gen4'	1	1008	'bus'	142
	0.0	'dc_ALDER_107_Gen1'	1	1009	'bus'	143
	0.0	'dc_ARNE_113_Gen1'	1	1010	'bus'	144
	0.0	'dc_ARNE_113_Gen2'	1	1011	'bus'	145
	0.0	'dc_ARNE_113_Gen3'	1	1012	'bus'	146
	0.0	'dc_ARNE_113_Gen4'	1	1013	'bus'	147
	0.0	'dc_ARNOLD_114_Gen1'	1	1014	'bus'	148
	0.0	'dc_ARTHUR_115_Gen1'	1	1015	'bus'	149
	0.0	'dc_ARTHUR_115_Gen2'	1	1016	'bus'	150
	0.0	'dc_ARTHUR_115_Gen3'	1	1017	'bus'	151
	0.0	'dc_ASSER_116_Gen1'	1	1018	'bus'	152
	0.0	'dc_ASTOR_118_Gen1'	1	1019	'bus'	153
	0.0	'dc_ATTLEE_121_Gen1'	1	1020	'bus'	154
	0.0	'dc_AUBREY_122_Gen1'	1	1021	'bus'	155
	0.0	'dc_AUBREY_122_Gen2'	1	1022	'bus'	156
	0.0	'dc_AUBREY_122_Gen3'	1	1023	'bus'	157
	0.0	'dc_AUBREY_122_Gen4'	1	1024	'bus'	158
	0.0	'dc_AUBREY_122_Gen5'	1	1025	'bus'	159
	0.0	'dc_AUBREY_122_Gen6'	1	1026	'bus'	160
	0.0	'dc_AUSTEN_123_Gen1'	1	1027	'bus'	161
	0.0	'dc_AUSTEN_123_Gen2'	1	1028	'bus'	162
	0.0	'dc_AUSTEN_123_Gen3'	1	1029	'bus'	163
	0.0	'dc_AUSTEN_123_Gen4'	1	1030	'bus'	164
	0.0	'dc_AUSTEN_123_Gen5'	1	1031	'bus'	165
	0.0	'dc_BACH_201_Gen1'	1	1032	'bus'	166
	0.0	'dc_BACH_201_Gen2'	1	1033	'bus'	167
	0.0	'dc_BACH_201_Gen3'	1	1034	'bus'	168
	0.0	'dc_BACH_201_Gen4'	1	1035	'bus'	169
	0.0	'dc_BACON_202_Gen1'	1	1036	'bus'	170
	0.0	'dc_BACON_202_Gen2'	1	1037	'bus'	171
	0.0	'dc_BACON_202_Gen3'	1	1038	'bus'	172
	0.0	'dc_BACON_202_Gen4'	1	1039	'bus'	173
	0.0	'dc_BAKER_207_Gen1'	1	1040	'bus'	174
	0.0	'dc_BAKER_207_Gen2'	1	1041	'bus'	175
	0.0	'dc_BARLOW_213_Gen1'	1	1042	'bus'	176
	0.0	'dc_BARLOW_213_Gen2'	1	1043	'bus'	177
	0.0	'dc_BARLOW_213_Gen3'	1	1044	'bus'	178
	0.0	'dc_BARRY_214_Gen1'	1	1045	'bus'	179
	0.0	'dc_BARTON_215_Gen1'	1	1046	'bus'	180
	0.0	'dc_BARTON_215_Gen2'	1	1047	'bus'	181
	0.0	'dc_BARTON_215_Gen3'	1	1048	'bus'	182
	0.0	'dc_BARTON_215_Gen4'	1	1049	'bus'	183
	0.0	'dc_BARTON_215_Gen5'	1	1050	'bus'	184
	0.0	'dc_BASOV_216_Gen1'	1	1051	'bus'	185
	0.0	'dc_BAYLE_218_Gen1'	1	1052	'bus'	186
	0.0	'dc_BEHRING_221_Gen1'	1	1053	'bus'	187
	0.0	'dc_BELL_222_Gen1'	1	1054	'bus'	188
	0.0	'dc_BELL_222_Gen2'	1	1055	'bus'	189
	0.0	'dc_BELL_222_Gen3'	1	1056	'bus'	190
	0.0	'dc_BELL_222_Gen4'	1	1057	'bus'	191
	0.0	'dc_BELL_222_Gen5'	1	1058	'bus'	192
	0.0	'dc_BELL_222_Gen6'	1	1059	'bus'	193
	0.0	'dc_BLOCH_223_Gen1'	1	1060	'bus'	194
	0.0	'dc_BLOCH_223_Gen2'	1	1061	'bus'	195
	0.0	'dc_BLOCH_223_Gen3'	1	1062	'bus'	196
	0.0	'dc_BLOCH_223_Gen4'	1	1063	'bus'	197
	0.0	'dc_BLOCH_223_Gen5'	1	1064	'bus'	198
	0.0	'dc_BLOCH_223_Gen6'	1	1065	'bus'	199
	0.0	'dc_CABELL_301_Gen1'	1	1066	'bus'	200
...
};


%% gmd_branch data
%column_names% br_r f_bus br_status parent_index br_v t_bus type 
mpc.gmd_branch = {
	1.39656	110	1	1	24.9822945412359	114	'line'
	0.17633333333333334	73	1	2	0.0	70	'gwye auto series winding (high)'
	0.39675	70	1	2	0.0	9	'gwye auto common winding (low)'
	0.17633333333333334	72	1	3	0.0	70	'gwye auto series winding (high)'
	0.39675	70	1	3	0.0	9	'gwye auto common winding (low)'
	2.5887943333333334	124	1	4	0.0	52	'gwye winding high-side'
	2.72964	69	1	5	-44.43618961918889	70	'line'
	0.5591796666666666	86	1	6	0.0	21	'gwye winding high-side'
	1.058	120	1	7	8.774255232518025	122	'line'
	0.17633333333333334	96	1	8	0.0	94	'gwye auto series winding (high)'
	0.39675	94	1	8	0.0	29	'gwye auto common winding (low)'
	0.5591796666666666	110	1	9	0.0	41	'gwye winding high-side'
	0.3526666666666667	100	1	10	-12.38869312744326	101	'line'
	2.5887943333333334	124	1	11	0.0	52	'gwye winding high-side'
	0.529	79	1	12	-22.248470935055018	82	'line'
	0.529	79	1	13	-22.248470935055018	82	'line'
	0.2148783333333333	110	1	14	0.0	41	'gwye winding high-side'
	0.23817533333333332	86	1	15	0.0	21	'gwye winding high-side'
	3.4914	86	1	16	-20.129751886308213	88	'line'
	0.17633333333333334	97	1	17	0.0	95	'gwye auto series winding (high)'
	0.39675	95	1	17	0.0	29	'gwye auto common winding (low)'
	0.17633333333333334	133	1	18	0.0	112	'gwye auto series winding (high)'
	0.39675	112	1	18	0.0	43	'gwye auto common winding (low)'
	0.09012266666666667	103	1	19	0.0	35	'gwye winding high-side'
	0.17633333333333334	97	1	20	0.0	94	'gwye auto series winding (high)'
	0.39675	94	1	20	0.0	29	'gwye auto common winding (low)'
	2.72964	93	1	21	-67.16221121014881	95	'line'
	1.058	121	1	22	8.774255232518025	122	'line'
	2.468666666666667	126	1	23	-33.91418551646975	131	'line'
	0.8887200000000001	67	1	24	-10.332025737226427	71	'line'
	3.174	111	1	25	47.24713261809909	115	'line'
	2.72964	117	1	26	42.62952676612795	118	'line'
	0.077664	82	1	27	0.0	18	'gwye winding high-side'
	1.71396	89	1	28	4.283275538676378	94	'line'
	1.5869999999999997	82	1	29	-20.951514401984703	83	'line'
	1.01568	92	1	30	-18.51942764842691	93	'line'
	1.058	96	1	31	-35.918874742286725	98	'line'
	0.3526666666666667	126	1	32	6.309759102740552	127	'line'
	0.8816666666666667	96	1	33	-25.767081048380152	99	'line'
	1.9396666666666667	74	1	34	-64.36633372154955	84	'line'
	2.09484	87	1	35	-37.36386892332864	89	'line'
	1.71396	65	1	36	-39.458172835110766	70	'line'
	1.39656	86	1	37	-20.561491795347393	90	'line'
	2.116	134	1	38	86.44088001092167	82	'line'
	0.5968846666666666	131	1	39	0.0	59	'gwye winding high-side'
	0.3526666666666667	102	1	40	-12.548128534687587	103	'line'
	0.19044000000000003	110	1	41	-3.454643078198325	111	'line'
	0.19044000000000003	86	1	42	-1.9225623888080052	87	'line'
	2.09484	111	1	43	24.233052995570656	113	'line'
	0.17633333333333334	96	1	44	0.0	95	'gwye auto series winding (high)'
	0.39675	95	1	44	0.0	29	'gwye auto common winding (low)'
	0.2148783333333333	116	1	45	0.0	47	'gwye winding high-side'
	0.5968846666666666	84	1	46	0.0	20	'gwye winding high-side'
	0.8816666666666667	128	1	47	4.910730232871951	129	'line'
	0.8816666666666667	128	1	48	4.910730232871951	129	'line'
	0.17633333333333334	72	1	49	0.0	71	'gwye auto series winding (high)'
	0.39675	71	1	49	0.0	9	'gwye auto common winding (low)'
	0.032444	68	1	50	0.0	7	'gwye winding high-side'
	0.09012266666666667	106	1	51	0.0	38	'gwye winding high-side'
	0.17633333333333334	109	1	52	0.0	88	'gwye auto series winding (high)'
	0.39675	88	1	52	0.0	23	'gwye auto common winding (low)'
	2.116	97	1	53	-108.28400932944635	108	'line'
	0.661598	100	1	54	0.0	32	'gwye winding high-side'
	3.4914	62	1	55	-68.65324298732402	64	'line'
	0.17633333333333334	73	1	56	0.0	71	'gwye auto series winding (high)'
	0.39675	71	1	56	0.0	9	'gwye auto common winding (low)'
	2.5887943333333334	124	1	57	0.0	52	'gwye winding high-side'
	1.5869999999999997	106	1	58	-7.297099586688618	107	'line'
	0.529	127	1	59	-11.014529184008293	130	'line'
	0.529	127	1	60	-11.014529184008293	130	'line'
	2.66616	68	1	61	-22.017515284752907	88	'line'
	0.09012266666666667	122	1	62	0.0	50	'gwye winding high-side'
	2.468666666666667	78	1	63	-56.456876358651186	83	'line'
	2.72964	69	1	64	-44.43618961918889	71	'line'
	2.09484	63	1	65	0.042275204863328184	65	'line'
	0.5968846666666666	74	1	66	0.0	10	'gwye winding high-side'
	3.174	63	1	67	-29.239352617528937	67	'line'
	0.09012266666666667	132	1	68	0.0	60	'gwye winding high-side'
	0.5968846666666666	74	1	69	0.0	10	'gwye winding high-side'
	1.0e-6	132	1	70	-1.2794087603827362	134	'line'
	0.5968846666666666	124	1	71	0.0	52	'gwye winding high-side'
	0.09012266666666667	132	1	72	0.0	60	'gwye winding high-side'
	0.17633333333333334	121	1	73	0.0	119	'gwye auto series winding (high)'
	0.39675	119	1	73	0.0	49	'gwye auto common winding (low)'
	0.5968846666666666	124	1	74	0.0	52	'gwye winding high-side'
	0.17633333333333334	120	1	75	0.0	119	'gwye auto series winding (high)'
	0.39675	119	1	75	0.0	49	'gwye auto common winding (low)'
	2.5887943333333334	76	1	76	0.0	12	'gwye winding high-side'
	0.529	125	1	77	10.195045238136348	128	'line'
	0.2148783333333333	116	1	78	0.0	47	'gwye winding high-side'
	0.09012266666666667	79	1	79	0.0	15	'gwye winding high-side'
	2.72964	93	1	80	-67.16221121014881	94	'line'
	1.5869999999999997	130	1	81	-29.11958336390013	131	'line'
	0.5968846666666666	84	1	82	0.0	20	'gwye winding high-side'
	2.5887943333333334	76	1	83	0.0	12	'gwye winding high-side'
	1.01568	116	1	84	18.210356435904895	117	'line'
	0.8816666666666667	104	1	85	-37.152046176570266	105	'line'
	0.8816666666666667	104	1	86	-37.152046176570266	105	'line'
	0.19044000000000003	62	1	87	0.7993061901676247	63	'line'
	0.5968846666666666	108	1	88	0.0	40	'gwye winding high-side'
	1.058	100	1	89	-49.706748171514036	106	'line'
	1.058	100	1	90	-49.706748171514036	106	'line'
	1.96788	112	1	91	-7.424285125795196	118	'line'
	1.39656	62	1	92	-13.423745600367834	66	'line'
	1.9396666666666667	122	1	93	73.53501616335075	132	'line'
	0.19912166666666667	108	1	94	0.0	40	'gwye winding high-side'
	0.5968846666666666	100	1	95	0.0	32	'gwye winding high-side'
	0.1736616666666667	123	1	96	0.0	51	'gwye winding high-side'
	0.17633333333333334	121	1	97	0.0	118	'gwye auto series winding (high)'
	0.39675	118	1	97	0.0	49	'gwye auto common winding (low)'
	1.46004	114	1	98	30.831630350616066	119	'line'
	0.529	125	1	99	15.632893278624438	126	'line'
	1.01568	68	1	100	-4.872995705241672	69	'line'
	2.116	73	1	101	-61.86056155124047	84	'line'
	0.426718	124	1	102	0.0	52	'gwye winding high-side'
	0.5968846666666666	108	1	103	0.0	40	'gwye winding high-side'
	0.5968846666666666	74	1	104	0.0	10	'gwye winding high-side'
	0.5968846666666666	74	1	105	0.0	10	'gwye winding high-side'
	0.529	101	1	106	-15.226031412046066	102	'line'
	2.5887943333333334	124	1	107	0.0	52	'gwye winding high-side'
	2.5887943333333334	124	1	108	0.0	52	'gwye winding high-side'
	1.46004	90	1	109	-14.563145780633738	95	'line'
	0.19912166666666667	76	1	110	0.0	12	'gwye winding high-side'
	0.661598	107	1	111	0.0	39	'gwye winding high-side'
	2.292333333333333	127	1	112	114.20901956006234	108	'line'
	3.4914	110	1	113	62.982720392433514	112	'line'
	0.661598	107	1	114	0.0	39	'gwye winding high-side'
	0.09121166666666668	108	1	115	0.0	40	'gwye winding high-side'
	0.661598	107	1	116	0.0	39	'gwye winding high-side'
	0.19912166666666667	108	1	117	0.0	40	'gwye winding high-side'
	0.5591796666666666	110	1	118	0.0	41	'gwye winding high-side'
	0.5968846666666666	108	1	119	0.0	40	'gwye winding high-side'
	0.661598	131	1	120	0.0	59	'gwye winding high-side'
	1.2343333333333335	100	1	121	47.906895605538956	109	'line'
	0.529	105	1	122	-7.117394202268204	108	'line'
	0.529	105	1	123	-7.117394202268204	108	'line'
	1.058	76	1	124	-60.91594812554289	82	'line'
	1.058	76	1	125	-60.91594812554289	82	'line'
	0.8816666666666667	99	1	126	-18.971629746522417	101	'line'
	0.09012266666666667	127	1	127	0.0	55	'gwye winding high-side'
	0.2148783333333333	92	1	128	0.0	27	'gwye winding high-side'
	0.661598	107	1	129	0.0	39	'gwye winding high-side'
	0.661598	83	1	130	0.0	19	'gwye winding high-side'
	0.661598	131	1	131	0.0	59	'gwye winding high-side'
	0.15303066666666668	62	1	132	0.0	1	'gwye winding high-side'
	0.5591796666666666	111	1	133	0.0	42	'gwye winding high-side'
	0.15303066666666668	62	1	134	0.0	1	'gwye winding high-side'
	1.058	72	1	135	2.7352986375448434	74	'line'
	0.529	77	1	136	-26.233658739758322	78	'line'
	0.661598	107	1	137	0.0	39	'gwye winding high-side'
	0.8816666666666667	72	1	138	-41.82106961942971	75	'line'
	0.661598	131	1	139	0.0	59	'gwye winding high-side'
	0.661598	83	1	140	0.0	19	'gwye winding high-side'
	1.96788	64	1	141	29.657287178880974	70	'line'
	0.3526666666666667	76	1	142	0.6933286675771244	77	'line'
	1.058	97	1	143	-35.918874742286725	98	'line'
	0.661598	83	1	144	0.0	19	'gwye winding high-side'
	0.529	101	1	145	-19.809813320566175	104	'line'
	1.7633333333333334	84	1	146	11.893062401963133	102	'line'
	2.468666666666667	102	1	147	-29.244819545836258	107	'line'
	1.71396	113	1	148	35.174436828168155	118	'line'
	2.116	121	1	149	82.02643744101195	132	'line'
	0.09012266666666667	98	1	150	0.0	30	'gwye winding high-side'
	0.2148783333333333	111	1	151	0.0	42	'gwye winding high-side'
	0.15303066666666668	87	1	152	0.0	22	'gwye winding high-side'
	1.2343333333333335	76	1	153	54.159403770315315	85	'line'
	1.7633333333333334	74	1	154	-24.251938899119754	100	'line'
	0.5591796666666666	62	1	155	0.0	1	'gwye winding high-side'
	0.5591796666666666	62	1	156	0.0	1	'gwye winding high-side'
	0.661598	83	1	157	0.0	19	'gwye winding high-side'
	0.5591796666666666	111	1	158	0.0	42	'gwye winding high-side'
	0.661598	107	1	159	0.0	39	'gwye winding high-side'
	3.174	87	1	160	-11.373904549336034	91	'line'
	2.72964	117	1	161	42.62952676612795	119	'line'
	0.17633333333333334	85	1	162	0.0	64	'gwye auto series winding (high)'
	0.39675	64	1	162	0.0	3	'gwye auto common winding (low)'
	0.1736616666666667	99	1	163	0.0	31	'gwye winding high-side'
	0.5591796666666666	87	1	164	0.0	22	'gwye winding high-side'
	0.8887200000000001	115	1	165	11.977262028926939	119	'line'
	0.5968846666666666	131	1	166	0.0	59	'gwye winding high-side'
	0.5968846666666666	98	1	167	0.0	30	'gwye winding high-side'
	0.8816666666666667	80	1	168	8.689158399104947	81	'line'
	0.8816666666666667	80	1	169	8.689158399104947	81	'line'
	1.058	73	1	170	2.7352986375448434	74	'line'
	0.8816666666666667	75	1	171	-41.0500281077416	77	'line'
	0.5968846666666666	100	1	172	0.0	32	'gwye winding high-side'
	0.661598	83	1	173	0.0	19	'gwye winding high-side'
	0.5968846666666666	98	1	174	0.0	30	'gwye winding high-side'
	0.661598	100	1	175	0.0	32	'gwye winding high-side'
	0.2148783333333333	92	1	176	0.0	27	'gwye winding high-side'
	0.661598	131	1	177	0.0	59	'gwye winding high-side'
	0.5591796666666666	63	1	178	0.0	2	'gwye winding high-side'
	1.46004	66	1	179	-25.30312302102146	71	'line'
	0.529	77	1	180	-3.934583860682601	80	'line'
	0.1736616666666667	75	1	181	0.0	11	'gwye winding high-side'
	0.5968846666666666	84	1	182	0.0	20	'gwye winding high-side'
	0.15303066666666668	63	1	183	0.0	2	'gwye winding high-side'
	0.2148783333333333	111	1	184	0.0	42	'gwye winding high-side'
	0.5591796666666666	63	1	185	0.0	2	'gwye winding high-side'
	0.3526666666666667	78	1	186	-13.069510621255636	79	'line'
...
};


%% branch_gmd data
%column_names% gmd_br_series gmd_k lo_bus ckt gmd_br_hi baseMVA hi_bus config gmd_br_common gmd_br_lo type
mpc.branch_gmd = {
	-1	-1	305	'1'	-1	100.0	301	'none'	-1	-1	'line'
	2	1.5	109	'1'	-1	100.0	112	'gwye-gwye-auto'	3	-1	'xfmr'
	4	1.5	109	'1'	-1	100.0	111	'gwye-gwye-auto'	5	-1	'xfmr'
	-1	1.5	1080	'1'	6	100.0	315	'gwye-delta'	-1	-1	'xfmr'
	-1	-1	109	'1'	-1	100.0	108	'none'	-1	-1	'line'
	-1	1.5	1032	'1'	8	100.0	201	'gwye-delta'	-1	-1	'xfmr'
	-1	-1	313	'1'	-1	100.0	311	'none'	-1	-1	'line'
	10	1.5	209	'1'	-1	100.0	211	'gwye-gwye-auto'	11	-1	'xfmr'
	-1	1.5	1066	'1'	12	100.0	301	'gwye-delta'	-1	-1	'xfmr'
	-1	-1	216	'1'	-1	100.0	215	'none'	-1	-1	'line'
	-1	1.5	1078	'1'	14	100.0	315	'gwye-delta'	-1	-1	'xfmr'
	-1	-1	121	'2'	-1	100.0	118	'none'	-1	-1	'line'
	-1	-1	121	'1'	-1	100.0	118	'none'	-1	-1	'line'
	-1	1.5	1069	'1'	17	100.0	301	'gwye-delta'	-1	-1	'xfmr'
	-1	1.5	1035	'1'	18	100.0	201	'gwye-delta'	-1	-1	'xfmr'
	-1	-1	203	'1'	-1	100.0	201	'none'	-1	-1	'line'
	20	1.5	210	'1'	-1	100.0	212	'gwye-gwye-auto'	21	-1	'xfmr'
	22	1.5	303	'1'	-1	100.0	324	'gwye-gwye-auto'	23	-1	'xfmr'
	-1	1.5	1052	'1'	24	100.0	218	'gwye-delta'	-1	-1	'xfmr'
	25	1.5	209	'1'	-1	100.0	212	'gwye-gwye-auto'	26	-1	'xfmr'
	-1	-1	210	'1'	-1	100.0	208	'none'	-1	-1	'line'
	-1	-1	313	'1'	-1	100.0	312	'none'	-1	-1	'line'
	-1	-1	322	'1'	-1	100.0	317	'none'	-1	-1	'line'
	-1	-1	110	'1'	-1	100.0	106	'none'	-1	-1	'line'
	-1	-1	306	'1'	-1	100.0	302	'none'	-1	-1	'line'
	-1	-1	309	'1'	-1	100.0	308	'none'	-1	-1	'line'
	-1	1.5	1020	'1'	33	100.0	121	'gwye-delta'	-1	-1	'xfmr'
	-1	-1	209	'1'	-1	100.0	204	'none'	-1	-1	'line'
	-1	-1	122	'1'	-1	100.0	121	'none'	-1	-1	'line'
	-1	-1	208	'1'	-1	100.0	207	'none'	-1	-1	'line'
	-1	-1	213	'1'	-1	100.0	211	'none'	-1	-1	'line'
	-1	-1	318	'1'	-1	100.0	317	'none'	-1	-1	'line'
	-1	-1	214	'1'	-1	100.0	211	'none'	-1	-1	'line'
	-1	-1	123	'1'	-1	100.0	113	'none'	-1	-1	'line'
	-1	-1	204	'1'	-1	100.0	202	'none'	-1	-1	'line'
	-1	-1	109	'1'	-1	100.0	104	'none'	-1	-1	'line'
	-1	-1	205	'1'	-1	100.0	201	'none'	-1	-1	'line'
	-1	-1	121	'1'	-1	100.0	325	'none'	-1	-1	'line'
	-1	1.5	1089	'1'	45	100.0	322	'gwye-delta'	-1	-1	'xfmr'
	-1	-1	218	'1'	-1	100.0	217	'none'	-1	-1	'line'
	-1	-1	302	'1'	-1	100.0	301	'none'	-1	-1	'line'
	-1	-1	202	'1'	-1	100.0	201	'none'	-1	-1	'line'
	-1	-1	304	'1'	-1	100.0	302	'none'	-1	-1	'line'
	50	1.5	210	'1'	-1	100.0	211	'gwye-gwye-auto'	51	-1	'xfmr'
	-1	1.5	1075	'1'	52	100.0	307	'gwye-delta'	-1	-1	'xfmr'
	-1	1.5	1031	'1'	53	100.0	123	'gwye-delta'	-1	-1	'xfmr'
	-1	-1	320	'2'	-1	100.0	319	'none'	-1	-1	'line'
	-1	-1	320	'1'	-1	100.0	319	'none'	-1	-1	'line'
	56	1.5	110	'1'	-1	100.0	111	'gwye-gwye-auto'	57	-1	'xfmr'
	-1	1.5	1009	'1'	58	100.0	107	'gwye-delta'	-1	-1	'xfmr'
	-1	1.5	1053	'1'	59	100.0	221	'gwye-delta'	-1	-1	'xfmr'
	60	1.5	203	'1'	-1	100.0	224	'gwye-gwye-auto'	61	-1	'xfmr'
...